src/test/resources/ieeefiles/20101016_0050_island.txt
 20101016 db                   100.0  2010 1                    db_sedata
BUS DATA FOLLOWS                    940 ITEMS
   1 阿城变.220.1 1   1  0 1.0533  8.338   29.624  15.5773  0.00000  0.0000  220.00 0.0000 0.00000 0.00000  0.0000  0.0000 0   
   2 阿拉坦变.60. 1   1  0 .97791  9.182   0.0200  -120.48  0.00000  0.0000  66.000 0.0000 0.00000 0.00000  0.0000  -0.623 0   
   3 阿拉坦变.60. 1   1  0 .93259  8.976   0.0025  6.40561  0.00000  0.0000  66.000 0.0000 0.00000 0.00000  0.0000  -0.634 0   
   4 阿拉坦变.220 1   1  0 1.0471  9.085   -0.498  .498100  0.00000  0.0000  220.00 0.0000 0.00000 0.00000  0.0000  0.0000 0   
   5 阿拉坦变.500 1   1  0 1.0765  8.006   0.0000  .495280  0.00000  0.0000  500.00 0.0000 0.00000 0.00000  0.0000  -3.265 0   
   6 阿南变.220.1 1   1  0 1.0540  8.397   68.324  35.5734  0.00000  0.0000  220.00 0.0000 0.00000 0.00000  0.0000  0.0000 0   
   7 敖日木风电变 1   1  0 1.0775  7.102   -16.08  -0.5710  0.00000  0.0000  220.00 0.0000 0.00000 0.00000  0.0000  0.0000 0   
   8 鞍山电厂.220 1   1  0 1.0206  -16.2   57.507  27.5178  0.00000  0.0000  220.00 0.0000 0.00000 0.00000  0.0000  0.0000 0   
   9 鞍山电厂.220 1   1  0 1.0225  -16.2   312.42  55.5790  0.00000  0.0000  220.00 0.0000 0.00000 0.00000  0.0000  0.0000 0   
  10 鞍山变.60.1  1   1  0 .93424  -16.7   2.6332  -1.6433  0.00000  0.0000  66.000 0.0000 0.00000 0.00000  0.0000  0.0000 0   
  11 鞍山变.60.2  1   1  0 .93455  -16.6   .66224  -2.3292  0.00000  0.0000  66.000 0.0000 0.00000 0.00000  0.0000  0.0000 0   
  12 鞍山变.220.1 1   1  0 1.0239  -15.9   .49765  -0.4984  0.00000  0.0000  220.00 0.0000 0.00000 0.00000  0.0000  .11200 0   
  13 鞍山变.500.1 1   1  0 1.0490  -9.91   .49911  -0.4981  0.00000  0.0000  500.00 0.0000 0.00000 0.00000  0.0000  0.0000 0   
  14 巴林变.60.1  1   1  0 .86567  -3.01   1.3776  28.7438  0.00000  0.0000  66.000 0.0000 0.00000 0.00000  0.0000  -1.126 0   
  15 巴林变.60.2  1   1  0 .89493  -2.97   0.0499  10.7598  0.00000  0.0000  66.000 0.0000 0.00000 0.00000  0.0000  -0.609 0   
  16 巴林变.220.1 1   1  0 1.0636  -2.99   .48856  -0.4993  0.00000  0.0000  220.00 0.0000 0.00000 0.00000  0.0000  0.0000 0   
  17 巴林变.500.1 1   1  0 1.0867  -3.09   0.0000  .488589  0.00000  0.0000  500.00 0.0000 0.00000 0.00000  0.0000  -1.999 0   
  18 北安变.220.1 1   1  0 1.0504  9.355   -35.97  20.3487  0.00000  0.0000  220.00 0.0000 0.00000 0.00000  0.0000  0.0000 0   
  19 巴彦变.220.1 1   1  0 1.0630  11.26   -50.86  16.5899  0.00000  0.0000  220.00 0.0000 0.00000 0.00000  0.0000  0.0000 0   
  20 白城电厂.500 1   1  0 1.0679  8.279   6.8077  9.44022  0.00000  0.0000  500.00 0.0000 0.00000 0.00000  0.0000  0.0000 0   
  21 白城变.220.1 1   1  0 1.0590  9.422   -57.20  15.3648  0.00000  0.0000  220.00 0.0000 0.00000 0.00000  0.0000  0.0000 0   
  22 北架风电变.2 1   1  0 1.0599  16.76   -31.18  .133208  0.00000  0.0000  220.00 0.0000 0.00000 0.00000  0.0000  0.0000 0   
  23 蝙蝠山风电变 1   1  0 1.0568  14.82   -16.85  -1.1086  0.00000  0.0000  220.00 0.0000 0.00000 0.00000  0.0000  0.0000 0   
  24 宾发变.220.1 1   1  0 1.0599  9.343   56.041  32.5335  0.00000  0.0000  220.00 0.0000 0.00000 0.00000  0.0000  0.0000 0   
  25 北钢变.220.1 1   1  0 1.0885  11.96   20.235  4.71063  0.00000  0.0000  220.00 0.0000 0.00000 0.00000  0.0000  0.0000 0   
  26 滨海变.220.1 1   1  0 1.0212  -20.7   55.488  3.47474  0.00000  0.0000  220.00 0.0000 0.00000 0.00000  0.0000  0.0000 0   
  27 北石洞变.220 1   1  0 1.0434  -19.3   27.518  .740809  0.00000  0.0000  220.00 0.0000 0.00000 0.00000  0.0000  0.0000 0   
  28 包家变.60.1  1   1  0 .91092  3.874   0.0000  12.6315  0.00000  0.0000  66.000 0.0000 0.00000 0.00000  0.0000  -2.400 0   
  29 包家变.220.1 1   1  0 1.0560  4.051   .49983  -0.4997  0.00000  0.0000  220.00 0.0000 0.00000 0.00000  0.0000  0.0216 0   
  30 包家变.500.1 1   1  0 1.0730  5.207   0.0000  -0.4991  0.00000  0.0000  500.00 0.0000 0.00000 0.00000  0.0000  -1.088 0   
  31 北郊变.220.1 1   1  0 1.0549  3.921   152.23  51.0906  0.00000  0.0000  220.00 0.0000 0.00000 0.00000  0.0000  0.0000 0   
  32 宝龙山变.220 1   1  0 1.0724  6.215   38.007  -0.0528  0.00000  0.0000  220.00 0.0000 0.00000 0.00000  0.0000  0.0000 0   
  33 北宁变.60.1  1   1  0 .95400  -10.0   .89808  4.37109  0.00000  0.0000  66.000 0.0000 0.00000 0.00000  0.0000  -0.599 0   
  34 北宁变.60.2  1   1  0 .95420  -9.99   .77340  3.95057  0.00000  0.0000  66.000 0.0000 0.00000 0.00000  0.0000  -0.600 0   
  35 北宁变.220.1 1   1  0 1.0551  -9.94   -0.499  -0.4960  0.00000  0.0000  220.00 0.0000 0.00000 0.00000  0.0000  0.0000 0   
  36 北宁变.500.1 1   1  0 1.0536  -9.42   -0.426  -0.4990  0.00000  0.0000  500.00 0.0000 0.00000 0.00000  0.0000  0.0000 0   
  37 渤海变.60.1  1   1  0 .95688  -20.7   0.0000  -0.3424  0.00000  0.0000  66.000 0.0000 0.00000 0.00000  0.0000  -0.600 0   
  38 渤海变.60.2  1   1  0 .95673  -20.7   0.0000  -0.3424  0.00000  0.0000  66.000 0.0000 0.00000 0.00000  0.0000  -0.599 0   
  39 渤海变.220.1 1   1  0 1.0260  -19.7   .49950  .499754  0.00000  0.0000  220.00 0.0000 0.00000 0.00000  0.0000  0.0498 0   
  40 渤海变.500.1 1   1  0 1.0546  -14.4   -0.497  .499494  0.00000  0.0000  500.00 0.0000 0.00000 0.00000  0.0000  0.0000 0   
  41 北票变.220.1 1   1  0 1.0274  -13.3   104.69  36.0075  0.00000  0.0000  220.00 0.0000 0.00000 0.00000  0.0000  0.0000 0   
  42 北清河风电变 1   1  0 1.0718  8.433   -131.1  5.00079  0.00000  0.0000  220.00 0.0000 0.00000 0.00000  0.0000  0.0000 0   
  43 宝清变.220.1 1   1  0 1.0660  15.18   15.741  6.13833  0.00000  0.0000  220.00 0.0000 0.00000 0.00000  0.0000  0.0000 0   
  44 白山热电厂.2 1   1  0 1.0527  2.185   1.7489  .485362  0.00000  0.0000  220.00 0.0000 0.00000 0.00000  0.0000  0.0000 0   
  45 北沙变.220.1 1   1  0 1.0522  9.991   -15.42  3.79549  0.00000  0.0000  220.00 0.0000 0.00000 0.00000  0.0000  0.0000 0   
  47 白山变.220.1 1   1  0 1.0546  .1235   40.880  12.6453  0.00000  0.0000  220.00 0.0000 0.00000 0.00000  0.0000  0.0000 0   
  48 北台变.220.1 1   1  0 1.0105  -13.4   211.63  93.3076  0.00000  0.0000  220.00 0.0000 0.00000 0.00000  0.0000  0.0000 0   
  49 本溪变.220.1 1   1  0 1.0188  -11.9   56.018  -0.3400  0.00000  0.0000  220.00 0.0000 0.00000 0.00000  0.0000  0.0000 0   
  50 白云变.220.1 1   1  0 1.0549  -1.73   50.824  17.2778  0.00000  0.0000  220.00 0.0000 0.00000 0.00000  0.0000  0.0000 0   
  51 白音华火电厂 1   1  0 1.0948  -2.20   17.971  -216.20  0.00000  0.0000  500.00 0.0000 0.00000 0.00000  0.0000  -3.000 0   
  52 白玉变.220.1 1   1  0 1.0279  -19.8   83.250  33.8078  0.00000  0.0000  220.00 0.0000 0.00000 0.00000  0.0000  0.0000 0   
  53 巴彦托海变.5 1   1  0 1.1316  15.40   0.0000  -0.4991  0.00000  0.0000  500.00 0.0000 0.00000 0.00000  0.0000  -3.108 0   
  54 北正风电变.2 1   1  0 1.0763  8.854   -43.27  8.25920  0.00000  0.0000  220.00 0.0000 0.00000 0.00000  0.0000  0.0000 0   
  55 宾州变.220.1 1   1  0 1.0623  9.102   26.224  1.25550  0.00000  0.0000  220.00 0.0000 0.00000 0.00000  0.0000  0.0000 0   
  56 长春热电厂.2 1   1  0 1.0641  4.746   .38609  1.31885  0.00000  0.0000  220.00 0.0000 0.00000 0.00000  0.0000  0.0000 0   
  57 曹屯变.220.1 1   1  0 1.0393  -19.6   140.21  5.42119  0.00000  0.0000  220.00 0.0000 0.00000 0.00000  0.0000  0.0000 0   
  58 城昂堡变.220 1   1  0 1.0223  -16.1   184.24  37.1007  0.00000  0.0000  220.00 0.0000 0.00000 0.00000  0.0000  0.0000 0   
  59 长白变.220.1 1   1  0 1.0698  -0.08   .10000  0.05282  0.00000  0.0000  220.00 0.0000 0.00000 0.00000  0.0000  0.0000 0   
  60 赤城东变.220 1   1  0 1.0667  -2.54   .49862  .492199  0.00000  0.0000  220.00 0.0000 0.00000 0.00000  0.0000  0.0000 0   
  61 长三热电厂.2 1   1  0 1.0560  3.734   9.9200  4.65979  0.00000  0.0000  220.00 0.0000 0.00000 0.00000  0.0000  0.0000 0   
  62 长春变.220.1 1   1  0 1.0563  3.757   91.495  25.0956  0.00000  0.0000  220.00 0.0000 0.00000 0.00000  0.0000  0.0000 0   
  63 达里风电变.2 1   1  0 1.0590  3.358   -56.89  11.1103  0.00000  0.0000  220.00 0.0000 0.00000 0.00000  0.0000  0.0000 0   
  64 长甸水电厂.2 1   1  0 1.0455  -10.5   .49945  -0.4737  0.00000  0.0000  220.00 0.0000 0.00000 0.00000  0.0000  0.0000 0   
  65 赤峰变.220.1 1   1  0 1.0557  -2.34   158.29  111.999  0.00000  0.0000  220.00 0.0000 0.00000 0.00000  0.0000  0.0030 0   
  66 晨光风电变.2 1   1  0 1.0739  13.53   -29.50  -1.8052  0.00000  0.0000  220.00 0.0000 0.00000 0.00000  0.0000  0.0000 0   
  67 草河口变.220 1   1  0 1.0213  -15.1   73.195  26.0903  0.00000  0.0000  220.00 0.0000 0.00000 0.00000  0.0000  0.0000 0   
  68 城乡变.220.1 1   1  0 1.0757  8.687   73.378  4.52629  0.00000  0.0000  220.00 0.0000 0.00000 0.00000  0.0000  0.0000 0   
  69 程家变.220.1 1   1  0 1.0232  -12.9   -0.498  -0.4999  0.00000  0.0000  220.00 0.0000 0.00000 0.00000  0.0000  0.0000 0   
  70 程家变.500.1 1   1  0 1.0556  -11.1   .49955  -0.4996  0.00000  0.0000  500.00 0.0000 0.00000 0.00000  0.0000  0.0000 0   
  71 春蕾变.220.1 1   1  0 1.0849  8.607   59.993  10.2840  0.00000  0.0000  220.00 0.0000 0.00000 0.00000  0.0000  0.0000 0   
  72 长岭变.220.1 1   1  0 1.0742  8.133   -4.249  9.74601  0.00000  0.0000  220.00 0.0000 0.00000 0.00000  0.0000  0.0000 0   
  73 吉城南变.220 1   1  0 1.0634  3.774   68.663  23.4046  0.00000  0.0000  220.00 0.0000 0.00000 0.00000  0.0000  0.0000 0   
  74 赤热B电厂.22 1   1  0 1.0564  -2.24   .18615  -0.4942  0.00000  0.0000  220.00 0.0000 0.00000 0.00000  0.0000  0.0000 0   
  75 吉长山变.220 1   1  0 1.0617  5.666   29.090  -4.2806  0.00000  0.0000  220.00 0.0000 0.00000 0.00000  0.0000  0.0000 0   
  76 辽长山变.220 1   1  0 1.0323  -19.2   115.79  42.4585  0.00000  0.0000  220.00 0.0000 0.00000 0.00000  0.0000  0.0000 0   
  77 长山电厂.220 1   1  0 1.0598  5.706   69.296  35.5720  0.00000  0.0000  220.00 0.0000 0.00000 0.00000  0.0000  0.0000 0   
  78 岔山变.220.1 1   1  0 1.0361  -19.7   46.741  10.7976  0.00000  0.0000  220.00 0.0000 0.00000 0.00000  0.0000  0.0000 0   
  79 昌图变.220.1 1   1  0 1.0629  .4336   -154.4  54.4049  0.00000  0.0000  220.00 0.0000 0.00000 0.00000  0.0000  0.0000 0   
  80 崔家变.220.1 1   1  0 1.0217  -17.5   8.5709  9.78048  0.00000  0.0000  220.00 0.0000 0.00000 0.00000  0.0000  0.0000 0   
  81 城西变.220.1 1   1  0 1.0594  3.666   30.564  12.8068  0.00000  0.0000  220.00 0.0000 0.00000 0.00000  0.0000  0.0000 0   
  82 赤西郊变.220 1   1  0 1.0579  -0.46   46.490  30.3328  0.00000  0.0000  220.00 0.0000 0.00000 0.00000  0.0000  0.0100 0   
  83 朝阳电厂.220 1   1  0 1.0362  -12.5   -0.499  -0.4957  0.00000  0.0000  220.00 0.0000 0.00000 0.00000  0.0000  0.0000 0   
  84 城园变.220.1 1   1  0 1.0536  5.426   62.393  27.1779  0.00000  0.0000  220.00 0.0000 0.00000 0.00000  0.0000  0.0000 0   
  85 才子乡风电变 1   1  0 1.0553  5.257   -32.65  2.72032  0.00000  0.0000  220.00 0.0000 0.00000 0.00000  0.0000  0.0000 0   
  86 大板变.220.1 1   1  0 1.0645  -2.75   25.585  -0.4522  0.00000  0.0000  220.00 0.0000 0.00000 0.00000  0.0000  0.0000 0   
  87 大安变.220.1 1   1  0 1.0601  6.660   37.554  11.3615  0.00000  0.0000  220.00 0.0000 0.00000 0.00000  0.0000  0.0000 0   
  88 东鞍山变.220 1   1  0 1.0201  -17.3   151.71  7.57016  0.00000  0.0000  220.00 0.0000 0.00000 0.00000  0.0000  0.0000 0   
  89 调兵山变.220 1   1  0 1.0707  3.340   -19.82  17.1326  0.00000  0.0000  220.00 0.0000 0.00000 0.00000  0.0000  0.0000 0   
  90 大成变.220.1 1   1  0 1.0510  -3.19   96.465  16.8146  0.00000  0.0000  220.00 0.0000 0.00000 0.00000  0.0000  0.0000 0   
  91 东辛庄变.220 1   1  0 1.0511  -9.93   3.9993  -12.003  0.00000  0.0000  220.00 0.0000 0.00000 0.00000  0.0000  0.0000 0   
  92 丹东北变.60. 1   1  0 .92397  -14.0   0.0000  10.2061  0.00000  0.0000  66.000 0.0000 0.00000 0.00000  0.0000  -0.600 0   
  93 丹东北变.60. 1   1  0 .92378  -14.0   0.0000  10.0410  0.00000  0.0000  66.000 0.0000 0.00000 0.00000  0.0000  -0.600 0   
  94 丹东北变.220 1   1  0 1.0374  -13.9   -0.498  -0.4901  0.00000  0.0000  220.00 0.0000 0.00000 0.00000  0.0000  0.0000 0   
  95 丹东北变.500 1   1  0 1.0637  -12.9   -0.494  -0.4991  0.00000  0.0000  500.00 0.0000 0.00000 0.00000  0.0000  0.0000 0   
  96 丹东电厂.220 1   1  0 1.0419  -13.5   -0.494  -0.4990  0.00000  0.0000  220.00 0.0000 0.00000 0.00000  0.0000  0.0000 0   
  97 丹东变.220.1 1   1  0 1.0375  -14.0   85.206  25.8491  0.00000  0.0000  220.00 0.0000 0.00000 0.00000  0.0000  0.0000 0   
  98 德惠变.220.1 1   1  0 1.0536  2.659   112.05  8.24899  0.00000  0.0000  220.00 0.0000 0.00000 0.00000  0.0000  0.0000 0   
  99 大岗风电变.2 1   1  0 1.0605  9.370   -92.22  23.9153  0.00000  0.0000  220.00 0.0000 0.00000 0.00000  0.0000  0.0000 0   
 100 大黑山风电变 1   1  0 1.0659  -0.45   -37.69  10.2566  0.00000  0.0000  220.00 0.0000 0.00000 0.00000  0.0000  0.0000 0   
 101 敦化变.220.1 1   1  0 1.0576  8.105   20.844  31.2010  0.00000  0.0000  220.00 0.0000 0.00000 0.00000  0.0000  0.0000 0   
 102 代家沟变.220 1   1  0 1.0212  -19.8   284.88  69.6725  0.00000  0.0000  220.00 0.0000 0.00000 0.00000  0.0000  0.0000 0   
 103 董家变.220.1 1   1  0 1.0593  -9.18   .49833  .493217  0.00000  0.0000  220.00 0.0000 0.00000 0.00000  0.0000  0.0000 0   
 104 董家变.220.2 1   1  0 1.0603  -9.91   .49347  -0.4430  0.00000  0.0000  220.00 0.0000 0.00000 0.00000  0.0000  0.0000 0   
 105 董家变.500.1 1   1  0 1.0564  -8.63   0.0000  .499420  0.00000  0.0000  500.00 0.0000 0.00000 0.00000  0.0000  -4.949 0   
 106 达连河变.220 1   1  0 1.0733  13.41   2.6629  88.6705  0.00000  0.0000  220.00 0.0000 0.00000 0.00000  0.0000  0.0000 0   
 107 代力吉风电变 1   1  0 1.0799  7.790   -59.51  -0.8410  0.00000  0.0000  220.00 0.0000 0.00000 0.00000  0.0000  0.0000 0   
 108 大连变.220.1 1   1  0 1.0334  -19.2   124.54  43.7889  0.00000  0.0000  220.00 0.0000 0.00000 0.00000  0.0000  0.0000 0   
 109 调煤矸石电厂 1   1  0 1.0792  5.826   -0.477  -0.4992  0.00000  0.0000  220.00 0.0000 0.00000 0.00000  0.0000  0.0000 0   
 110 东宁变.220.1 1   1  0 1.0526  10.57   -5.679  12.4020  0.00000  0.0000  220.00 0.0000 0.00000 0.00000  0.0000  0.0000 0   
 111 东郊变.220.1 1   1  0 1.0553  4.009   124.56  34.3745  0.00000  0.0000  220.00 0.0000 0.00000 0.00000  0.0000  0.0000 0   
 112 东梁变.220.1 1   1  0 1.0652  -7.57   81.333  31.8350  0.00000  0.0000  220.00 0.0000 0.00000 0.00000  0.0000  0.0000 0   
 113 东山风电变.2 1   1  0 1.0737  5.106   -75.50  2.45225  0.00000  0.0000  220.00 0.0000 0.00000 0.00000  0.0000  0.0000 0   
 114 大庆电厂.220 1   1  0 1.0659  6.976   -0.018  .497092  0.00000  0.0000  220.00 0.0000 0.00000 0.00000  0.0000  0.0000 0   
 115 大庆变.35.1  1   1  0 1.0034  8.566   .12749  -14.234  0.00000  0.0000  35.000 0.0000 0.00000 0.00000  0.0000  -1.799 0   
 116 大庆变.60.1  1   1  0 .93975  8.322   0.0000  13.2644  0.00000  0.0000  66.000 0.0000 0.00000 0.00000  0.0000  -1.800 0   
 117 大庆变.220.1 1   1  0 1.0856  8.732   .49617  .497412  0.00000  0.0000  220.00 0.0000 0.00000 0.00000  0.0000  0.0000 0   
 118 大庆变.500.1 1   1  0 1.0840  10.09   0.0000  -0.4962  0.00000  0.0000  500.00 0.0000 0.00000 0.00000  0.0000  -1.499 0   
 119 东胜变.220.1 1   1  0 1.0397  -6.03   66.469  27.3147  0.00000  0.0000  220.00 0.0000 0.00000 0.00000  0.0000  0.0000 0   
 120 大三电厂.220 1   1  0 1.0335  -19.3   16.717  2.97884  0.00000  0.0000  220.00 0.0000 0.00000 0.00000  0.0000  0.0000 0   
 121 大三电厂.220 1   1  0 1.0334  -19.3   22.029  9.41180  0.00000  0.0000  220.00 0.0000 0.00000 0.00000  0.0000  0.0000 0   
 122 大石桥变.220 1   1  0 .99758  -23.0   59.337  -3.0794  0.00000  0.0000  220.00 0.0000 0.00000 0.00000  0.0000  0.0000 0   
 123 灯塔变.220.1 1   1  0 1.0079  -13.7   136.09  27.5829  0.00000  0.0000  220.00 0.0000 0.00000 0.00000  0.0000  0.0000 0   
 124 多宝山变.220 1   1  0 1.0420  8.782   4.3408  29.7952  0.00000  0.0000  220.00 0.0000 0.00000 0.00000  0.0000  0.0000 0   
 125 大连湾电厂.2 1   1  0 1.0384  -18.8   .49917  .498858  0.00000  0.0000  220.00 0.0000 0.00000 0.00000  0.0000  0.0000 0   
 126 二道江电厂.2 1   1  0 1.0513  0.022   0.0342  .468432  0.00000  0.0000  220.00 0.0000 0.00000 0.00000  0.0000  0.0000 0   
 127 长二热电厂.2 1   1  0 1.0574  4.435   .49554  .496818  0.00000  0.0000  220.00 0.0000 0.00000 0.00000  0.0000  0.0000 0   
 128 长二热电厂.2 1   1  0 1.0575  3.907   -0.642  .904167  0.00000  0.0000  220.00 0.0000 0.00000 0.00000  0.0000  0.0000 0   
 129 范家变.220.1 1   1  0 1.0359  -19.8   191.19  27.1845  0.00000  0.0000  220.00 0.0000 0.00000 0.00000  0.0000  0.0000 0   
 130 阜北风电变.2 1   1  0 1.0731  -6.42   -74.68  -11.293  0.00000  0.0000  220.00 0.0000 0.00000 0.00000  0.0000  0.0000 0   
 131 凤城变.220.1 1   1  0 1.0291  -14.6   176.41  53.8770  0.00000  0.0000  220.00 0.0000 0.00000 0.00000  0.0000  0.0000 0   
 132 富家变.220.1 1   1  0 1.0107  -13.4   105.06  38.7616  0.00000  0.0000  220.00 0.0000 0.00000 0.00000  0.0000  0.0000 0   
 133 富锦变.220.1 1   1  0 1.0721  15.29   10.390  5.30220  0.00000  0.0000  220.00 0.0000 0.00000 0.00000  0.0000  0.0000 0   
 134 法库变.220.1 1   1  0 1.0707  5.088   87.282  56.8869  0.00000  0.0000  220.00 0.0000 0.00000 0.00000  0.0000  0.0000 0   
 135 富拉尔基变.2 1   1  0 1.0894  12.06   120.59  29.0101  0.00000  0.0000  220.00 0.0000 0.00000 0.00000  0.0000  0.0000 0   
 136 丰乐变.220.1 1   1  0 1.0474  5.569   135.74  45.7655  0.00000  0.0000  220.00 0.0000 0.00000 0.00000  0.0000  0.0000 0   
 137 丰满水电厂.2 1   1  0 1.0685  4.043   .49608  -0.4723  0.00000  0.0000  220.00 0.0000 0.00000 0.00000  0.0000  0.0000 0   
 138 富二电厂.220 1   1  0 1.0915  12.51   -0.498  .499120  0.00000  0.0000  220.00 0.0000 0.00000 0.00000  0.0000  0.0000 0   
 139 繁荣变.220.1 1   1  0 1.0529  -2.73   112.50  60.0416  0.00000  0.0000  220.00 0.0000 0.00000 0.00000  0.0000  0.0000 0   
 140 冯屯变.35.1  1   1  0 .98926  11.30   0.0000  -5.6882  0.00000  0.0000  35.000 0.0000 0.00000 0.00000  0.0000  -1.799 0   
 141 冯屯变.220.1 1   1  0 1.0896  11.30   .49831  -0.4989  0.00000  0.0000  220.00 0.0000 0.00000 0.00000  0.0000  0.0000 0   
 142 冯屯变.500.1 1   1  0 1.0911  11.30   -0.488  -0.4967  0.00000  0.0000  500.00 0.0000 0.00000 0.00000  0.0000  0.0400 0   
 143 福利变.220.1 1   1  0 1.0558  14.65   37.452  14.0871  0.00000  0.0000  220.00 0.0000 0.00000 0.00000  0.0000  0.0000 0   
 144 抚顺热电厂.2 1   1  0 1.0608  -2.66   0.0400  0.04000  0.00000  0.0000  220.00 0.0000 0.00000 0.00000  0.0000  0.0000 0   
 145 阜新电厂.220 1   1  0 1.0691  -7.02   20.258  18.2691  0.00000  0.0000  220.00 0.0000 0.00000 0.00000  0.0000  0.0000 0   
 146 扶余变.220.1 1   1  0 1.0489  3.740   81.788  22.7046  0.00000  0.0000  220.00 0.0000 0.00000 0.00000  0.0000  0.0000 0   
 147 复州城变.220 1   1  0 1.0296  -19.3   95.638  34.0081  0.00000  0.0000  220.00 0.0000 0.00000 0.00000  0.0000  0.0000 0   
 148 方正变.220.1 1   1  0 1.0820  12.63   .49944  .499862  0.00000  0.0000  220.00 0.0000 0.00000 0.00000  0.0000  0.0000 0   
 149 方正变.500.1 1   1  0 1.0814  12.36   0.0000  .497954  0.00000  0.0000  500.00 0.0000 0.00000 0.00000  0.0000  -3.537 0   
 150 甘泉变.220.1 1   1  0 1.0284  -18.8   195.49  38.6462  0.00000  0.0000  220.00 0.0000 0.00000 0.00000  0.0000  0.0000 0   
 151 钢铁变.220.1 1   1  0 1.0272  -19.8   170.48  41.3613  0.00000  0.0000  220.00 0.0000 0.00000 0.00000  0.0000  0.0000 0   
 152 弓长岭变.220 1   1  0 1.0085  -13.6   30.569  28.4074  0.00000  0.0000  220.00 0.0000 0.00000 0.00000  0.0000  0.0000 0   
 153 高城山变.220 1   1  0 1.0432  -19.3   68.801  7.76951  0.00000  0.0000  220.00 0.0000 0.00000 0.00000  0.0000  0.0000 0   
 154 呼伦贝尔电厂 1   1  0 1.1351  15.57   -0.498  -0.4725  0.00000  0.0000  500.00 0.0000 0.00000 0.00000  0.0000  0.0000 0   
 155 高集岗变.220 1   1  0 1.0677  -0.57   17.885  12.3303  0.00000  0.0000  220.00 0.0000 0.00000 0.00000  0.0000  .23660 0   
 156 甘井子热电厂 1   1  0 1.0344  -19.2   3.6045  -2.9567  0.00000  0.0000  220.00 0.0000 0.00000 0.00000  0.0000  0.0000 0   
 157 耿家变.220.1 1   1  0 1.0104  -13.8   102.58  -7.0933  0.00000  0.0000  220.00 0.0000 0.00000 0.00000  0.0000  0.0000 0   
 158 高力板风电变 1   1  0 1.0800  11.94   -23.69  2.36221  0.00000  0.0000  220.00 0.0000 0.00000 0.00000  0.0000  0.0000 0   
 159 高岭变.500.1 1   1  0 1.0693  -6.51   707.00  -93.850  0.00000  0.0000  500.00 0.0000 0.00000 0.00000  0.0000  -1.500 0   
 160 工农变.220.1 1   1  0 1.0242  -11.7   119.85  52.3225  0.00000  0.0000  220.00 0.0000 0.00000 0.00000  0.0000  0.0000 0   
 161 革镇堡变.220 1   1  0 1.0319  -19.5   103.67  34.3895  0.00000  0.0000  220.00 0.0000 0.00000 0.00000  0.0000  0.0000 0   
 162 甘旗卡变.220 1   1  0 1.0584  3.635   14.699  -5.1469  0.00000  0.0000  220.00 0.0000 0.00000 0.00000  0.0000  0.0100 0   
 163 高台山变.220 1   1  0 1.0334  -0.44   115.91  14.4953  0.00000  0.0000  220.00 0.0000 0.00000 0.00000  0.0000  0.0000 0   
 164 国庆变.220.1 1   1  0 1.0541  1.147   39.633  12.6965  0.00000  0.0000  220.00 0.0000 0.00000 0.00000  0.0000  0.0000 0   
 165 港湾变.220.1 1   1  0 1.0566  -9.99   44.461  17.2286  0.00000  0.0000  220.00 0.0000 0.00000 0.00000  0.0000  0.0000 0   
 166 公主岭变.220 1   1  0 1.0453  .6726   124.42  14.4300  0.00000  0.0000  220.00 0.0000 0.00000 0.00000  0.0000  0.0000 0   
 167 盖州变.220.1 1   1  0 1.0242  -20.0   170.91  54.5852  0.00000  0.0000  220.00 0.0000 0.00000 0.00000  0.0000  0.0000 0   
 168 哈一热电厂.2 1   1  0 1.0852  9.491   1.8284  2.25239  0.00000  0.0000  220.00 0.0000 0.00000 0.00000  0.0000  0.0000 0   
 169 哈东变.220.1 1   1  0 1.0676  9.685   101.49  34.7668  0.00000  0.0000  220.00 0.0000 0.00000 0.00000  0.0000  0.0000 0   
 170 浩良河变.220 1   1  0 1.0629  13.35   38.049  20.6446  0.00000  0.0000  220.00 0.0000 0.00000 0.00000  0.0000  0.0000 0   
 171 哈热电厂.220 1   1  0 1.0732  8.475   -0.466  -0.4809  0.00000  0.0000  220.00 0.0000 0.00000 0.00000  0.0000  0.0000 0   
 172 哈热电厂.220 1   1  0 1.0731  8.439   -0.137  -0.0976  0.00000  0.0000  220.00 0.0000 0.00000 0.00000  0.0000  0.0000 0   
 173 韩屯变.220.1 1   1  0 1.0503  -3.34   117.65  45.9649  0.00000  0.0000  220.00 0.0000 0.00000 0.00000  0.0000  0.0000 0   
 174 海湾变.220.1 1   1  0 1.0369  -18.9   9.4991  2.32220  0.00000  0.0000  220.00 0.0000 0.00000 0.00000  0.0000  0.0000 0   
 175 哈西变.220.1 1   1  0 1.0762  8.653   124.85  37.5552  0.00000  0.0000  220.00 0.0000 0.00000 0.00000  0.0000  0.0000 0   
 176 河北变.220.1 1   1  0 1.0410  -6.85   111.87  37.0732  0.00000  0.0000  220.00 0.0000 0.00000 0.00000  0.0000  0.0000 0   
 177 珲春电厂.220 1   1  0 1.0594  11.67   .49493  -0.4932  0.00000  0.0000  220.00 0.0000 0.00000 0.00000  0.0000  0.0000 0   
 178 海城变.220.1 1   1  0 1.0249  -19.3   117.89  20.0803  0.00000  0.0000  220.00 0.0000 0.00000 0.00000  0.0000  0.0000 0   
 179 鹤东郊变.220 1   1  0 1.0645  13.72   25.882  .852071  0.00000  0.0000  220.00 0.0000 0.00000 0.00000  0.0000  0.0000 0   
 180 桦甸变.220.1 1   1  0 1.0644  -0.76   37.773  13.0522  0.00000  0.0000  220.00 0.0000 0.00000 0.00000  0.0000  0.0000 0   
 181 哈达湾变.220 1   1  0 1.0566  3.652   85.120  12.3423  0.00000  0.0000  220.00 0.0000 0.00000 0.00000  0.0000  0.0000 0   
 182 黑河换流变.3 1   1  0 1.0294  9.066   .50021  38.2294  0.00000  0.0000  35.000 0.0000 0.00000 0.00000  0.0000  -0.249 0   
 183 黑河换流变.2 1   1  0 1.0259  9.080   .47190  .497964  0.00000  0.0000  220.00 0.0000 0.00000 0.00000  0.0000  0.0000 0   
 184 和龙变.220.1 1   1  0 1.0407  9.462   30.905  53.0600  0.00000  0.0000  220.00 0.0000 0.00000 0.00000  0.0000  0.0000 0   
 185 鹤南变.220.1 1   1  0 1.0691  14.89   .49952  -0.4993  0.00000  0.0000  220.00 0.0000 0.00000 0.00000  0.0000  0.0100 0   
 186 鹤岗电厂.220 1   1  0 1.0725  15.67   .49910  -0.4988  0.00000  0.0000  220.00 0.0000 0.00000 0.00000  0.0000  0.0000 0   
 187 黄海变.500.1 1   1  0 1.0688  -14.1   0.0000  .489807  0.00000  0.0000  500.00 0.0000 0.00000 0.00000  0.0000  -1.525 0   
 188 黑河变.220.1 1   1  0 1.0262  9.053   22.065  -2.1005  0.00000  0.0000  220.00 0.0000 0.00000 0.00000  0.0000  0.0000 0   
 189 黑和平变.220 1   1  0 1.0661  15.17   6.8968  -3.8229  0.00000  0.0000  220.00 0.0000 0.00000 0.00000  0.0000  0.0000 0   
 190 浑河变.220.1 1   1  0 1.0391  -6.73   147.61  45.0474  0.00000  0.0000  220.00 0.0000 0.00000 0.00000  0.0000  0.0000 0   
 191 浑江电厂.220 1   1  0 1.0566  .1557   .49994  .499501  0.00000  0.0000  220.00 0.0000 0.00000 0.00000  0.0000  0.0000 0   
 192 火炬变.220.1 1   1  0 1.0688  7.343   111.10  41.3753  0.00000  0.0000  220.00 0.0000 0.00000 0.00000  0.0000  0.0000 0   
 193 霍煤坑口电厂 1   1  0 1.0768  8.611   0.0000  -0.4738  0.00000  0.0000  500.00 0.0000 0.00000 0.00000  0.0000  -1.602 0   
 194 葫芦岛变.220 1   1  0 1.0534  -10.5   146.71  66.2466  0.00000  0.0000  220.00 0.0000 0.00000 0.00000  0.0000  0.0000 0   
 195 霍林河变.220 1   1  0 1.0429  8.546   -8.412  16.6537  0.00000  0.0000  220.00 0.0000 0.00000 0.00000  0.0000  0.0000 0   
 196 海林变.220.1 1   1  0 1.0615  10.41   17.409  4.84864  0.00000  0.0000  220.00 0.0000 0.00000 0.00000  0.0000  0.0000 0   
 197 海伦变.220.1 1   1  0 1.0422  8.802   37.502  11.5687  0.00000  0.0000  220.00 0.0000 0.00000 0.00000  0.0000  0.0000 0   
 198 霍煤电厂.110 1   1  0 1.1001  13.91   332.81  151.555  0.00000  0.0000  110.00 0.0000 0.00000 0.00000  0.0000  0.0000 0   
 199 霍煤电厂.220 1   1  0 1.0425  8.458   -0.499  -0.4982  0.00000  0.0000  220.00 0.0000 0.00000 0.00000  0.0000  0.0000 0   
 200 呼玛变.220.1 1   1  0 1.0440  9.463   -7.358  19.5560  0.00000  0.0000  220.00 0.0000 0.00000 0.00000  0.0000  0.0000 0   
 201 哈南变.35.2  1   1  0 1.0147  8.801   0.0000  -2.4531  0.00000  0.0000  35.000 0.0000 0.00000 0.00000  0.0000  -0.600 0   
...
-999
BRANCH DATA FOLLOWS                    1445 ITEMS
   4   45 1 1   1 0  0.006310  0.028629   0.05112  0     0     0    0    0  1.0000  0.00   0.0000 0.00000 0.0000 -99999 99999.0
   6    1 1 1   1 0  0.001500  0.008400   0.01380  0     0     0    0    0  1.0000  0.00   0.0000 0.00000 0.0000 -99999 99999.0
   6    1 1 1   2 0  0.001400  0.008400   0.01380  0     0     0    0    0  1.0000  0.00   0.0000 0.00000 0.0000 -99999 99999.0
   5  282 1 1   1 0  0.001600  0.021440   3.71000  0     0     0    0    0  1.0000  0.00   0.0000 0.00000 0.0000 -99999 99999.0
   5  282 1 1   2 0  0.001600  0.020800   3.69900  0     0     0    0    0  1.0000  0.00   0.0000 0.00000 0.0000 -99999 99999.0
   4  277 1 1   1 0  0.000680  0.003090   0.00552  0     0     0    0    0  1.0000  0.00   0.0000 0.00000 0.0000 -99999 99999.0
   4  195 1 1   1 0  0.008200  0.046650   0.07174  0     0     0    0    0  1.0000  0.00   0.0000 0.00000 0.0000 -99999 99999.0
   4  195 1 1   2 0  0.008300  0.045970   0.07378  0     0     0    0    0  1.0000  0.00   0.0000 0.00000 0.0000 -99999 99999.0
   4  296 1 1   1 0  0.018800  .1035500   .157440  0     0     0    0    0  1.0000  0.00   0.0000 0.00000 0.0000 -99999 99999.0
   4  619 1 1   1 0  0.020959  .1187400   .187820  0     0     0    0    0  1.0000  0.00   0.0000 0.00000 0.0000 -99999 99999.0
   6  617 1 1   1 0  0.005000  0.022800   0.06780  0     0     0    0    0  1.0000  0.00   0.0000 0.00000 0.0000 -99999 99999.0
   6  617 1 1   2 0  0.004900  0.022900   0.07140  0     0     0    0    0  1.0000  0.00   0.0000 0.00000 0.0000 -99999 99999.0
  12   88 1 1   1 0  0.002020  0.011360   0.02220  0     0     0    0    0  1.0000  0.00   0.0000 0.00000 0.0000 -99999 99999.0
  12   88 1 1   2 0  0.002010  0.011350   0.02220  0     0     0    0    0  1.0000  0.00   0.0000 0.00000 0.0000 -99999 99999.0
   8  206 1 1   1 0  0.000700  0.003100   0.01000  0     0     0    0    0  1.0000  0.00   0.0000 0.00000 0.0000 -99999 99999.0
   8  206 1 1   2 0  0.000700  0.003100   0.01000  0     0     0    0    0  1.0000  0.00   0.0000 0.00000 0.0000 -99999 99999.0
  12  300 1 1   1 0  0.001840  0.010520   0.02789  0     0     0    0    0  1.0000  0.00   0.0000 0.00000 0.0000 -99999 99999.0
  12  300 1 1   2 0  0.001840  0.010520   0.02789  0     0     0    0    0  1.0000  0.00   0.0000 0.00000 0.0000 -99999 99999.0
  12  206 1 1   1 0  0.000360  0.002500   0.00830  0     0     0    0    0  1.0000  0.00   0.0000 0.00000 0.0000 -99999 99999.0
  12  206 1 1   2 0  0.000360  0.002500   0.00840  0     0     0    0    0  1.0000  0.00   0.0000 0.00000 0.0000 -99999 99999.0
  13  543 1 1   1 0  0.000400  0.005100   .500000  0     0     0    0    0  1.0000  0.00   0.0000 0.00000 0.0000 -99999 99999.0
  13  543 1 1   2 0  0.000400  0.005100   .518000  0     0     0    0    0  1.0000  0.00   0.0000 0.00000 0.0000 -99999 99999.0
  16   86 1 1   1 0  0.003870  0.017720   0.02564  0     0     0    0    0  1.0000  0.00   0.0000 0.00000 0.0000 -99999 99999.0
  16  303 1 1   1 0  0.000000  0.001000   0.01000  0     0     0    0    0  1.0000  0.00   0.0000 0.00000 0.0000 -99999 99999.0
  53  600 1 1   1 0  0.000640  0.008170   .899710  0     0     0    0    0  1.0000  0.00   0.0000 0.00000 0.0000 -99999 99999.0
  53  600 1 1   2 0  0.000850  0.008150   .903090  0     0     0    0    0  1.0000  0.00   0.0000 0.00000 0.0000 -99999 99999.0
  17  420 1 1   1 0  0.001070  0.013920   2.44920  0     0     0    0    0  1.0000  0.00   0.0000 0.00000 0.0000 -99999 99999.0
  17  420 1 1   2 0  0.001080  0.013840   2.44136  0     0     0    0    0  1.0000  0.00   0.0000 0.00000 0.0000 -99999 99999.0
  51   17 1 1   1 0  0.001150  0.012320   2.11166  0     0     0    0    0  1.0000  0.00   0.0000 0.00000 0.0000 -99999 99999.0
  51   17 1 1   2 0  0.001150  0.012720   2.16660  0     0     0    0    0  1.0000  0.00   0.0000 0.00000 0.0000 -99999 99999.0
 431  251 1 1   1 0  0.005680  0.030990   0.08610  0     0     0    0    0  1.0000  0.00   0.0000 0.00000 0.0000 -99999 99999.0
  47  435 1 1   1 0  0.003600  0.016600   0.05620  0     0     0    0    0  1.0000  0.00   0.0000 0.00000 0.0000 -99999 99999.0
  21  509 1 1   1 0  0.005600  0.031000   0.01000  0     0     0    0    0  1.0000  0.00   0.0000 0.00000 0.0000 -99999 99999.0
  20  515 1 1   1 0  0.000020  0.000390   0.03917  0     0     0    0    0  1.0000  0.00   0.0000 0.00000 0.0000 -99999 99999.0
  44  497 1 1   1 0  0.003200  0.024800   0.07663  0     0     0    0    0  1.0000  0.00   0.0000 0.00000 0.0000 -99999 99999.0
  44  497 1 1   2 0  0.003200  0.024800   0.07663  0     0     0    0    0  1.0000  0.00   0.0000 0.00000 0.0000 -99999 99999.0
  32  641 1 1   1 0  0.003000  0.011000   0.01000  0     0     0    0    0  1.0000  0.00   0.0000 0.00000 0.0000 -99999 99999.0
 215  642 1 1   1 0  0.003120  0.015560   0.01000  0     0     0    0    0  1.0000  0.00   0.0000 0.00000 0.0000 -99999 99999.0
   7  642 1 1   1 0  0.000000  0.001000   0.01000  0     0     0    0    0  1.0000  0.00   0.0000 0.00000 0.0000 -99999 99999.0
 107  641 1 1   1 0  0.004000  0.025420   0.01000  0     0     0    0    0  1.0000  0.00   0.0000 0.00000 0.0000 -99999 99999.0
  30  242 1 1   1 0  0.002280  0.016300   1.64600  0     0     0    0    0  1.0000  0.00   0.0000 0.00000 0.0000 -99999 99999.0
  29  181 1 1   1 0  0.001800  0.008700   0.02120  0     0     0    0    0  1.0000  0.00   0.0000 0.00000 0.0000 -99999 99999.0
  29  253 1 1   1 0  0.002500  0.013200   0.02300  0     0     0    0    0  1.0000  0.00   0.0000 0.00000 0.0000 -99999 99999.0
  29  253 1 1   2 0  0.002500  0.013200   0.02300  0     0     0    0    0  1.0000  0.00   0.0000 0.00000 0.0000 -99999 99999.0
 524  393 1 1   1 0  0.005000  0.027300   0.07420  0     0     0    0    0  1.0000  0.00   0.0000 0.00000 0.0000 -99999 99999.0
  32   72 1 1   1 0  0.016600  .1045000   .172799  0     0     0    0    0  1.0000  0.00   0.0000 0.00000 0.0000 -99999 99999.0
  43  189 1 1   1 0  0.000000  0.001000   0.01000  0     0     0    0    0  1.0000  0.00   0.0000 0.00000 0.0000 -99999 99999.0
  29  567 1 1   1 0  0.001200  0.008300   0.02000  0     0     0    0    0  1.0000  0.00   0.0000 0.00000 0.0000 -99999 99999.0
  29  567 1 1   2 0  0.001200  0.006900   0.00200  0     0     0    0    0  1.0000  0.00   0.0000 0.00000 0.0000 -99999 99999.0
  48  152 1 1   1 0  0.001200  0.005330   0.00876  0     0     0    0    0  1.0000  0.00   0.0000 0.00000 0.0000 -99999 99999.0
  54   72 1 1   1 0  0.007120  0.033259   .103720  0     0     0    0    0  1.0000  0.00   0.0000 0.00000 0.0000 -99999 99999.0
 176  205 1 1   1 0  0.001800  0.006390   0.01520  0     0     0    0    0  1.0000  0.00   0.0000 0.00000 0.0000 -99999 99999.0
 176  205 1 1   2 0  0.001000  0.006600   0.01920  0     0     0    0    0  1.0000  0.00   0.0000 0.00000 0.0000 -99999 99999.0
  35  402 1 1   1 0  0.001700  0.007600   0.01980  0     0     0    0    0  1.0000  0.00   0.0000 0.00000 0.0000 -99999 99999.0
  35  402 1 1   2 0  0.001800  0.007000   0.01820  0     0     0    0    0  1.0000  0.00   0.0000 0.00000 0.0000 -99999 99999.0
  35  474 1 1   1 0  0.004300  0.018900   0.05160  0     0     0    0    0  1.0000  0.00   0.0000 0.00000 0.0000 -99999 99999.0
  35  474 1 1   2 0  0.004100  0.019600   0.05460  0     0     0    0    0  1.0000  0.00   0.0000 0.00000 0.0000 -99999 99999.0
  35  467 1 1   1 0  0.010900  0.047200   .130599  0     0     0    0    0  1.0000  0.00   0.0000 0.00000 0.0000 -99999 99999.0
  35  523 1 1   1 0  0.013900  0.049100   .135199  0     0     0    0    0  1.0000  0.00   0.0000 0.00000 0.0000 -99999 99999.0
  35  508 1 1   1 0  0.005360  0.024800   0.05020  0     0     0    0    0  1.0000  0.00   0.0000 0.00000 0.0000 -99999 99999.0
  35  508 1 1   2 0  0.004010  0.021050   0.05760  0     0     0    0    0  1.0000  0.00   0.0000 0.00000 0.0000 -99999 99999.0
  36  543 1 1   1 0  0.001210  0.013550   1.24820  0     0     0    0    0  1.0000  0.00   0.0000 0.00000 0.0000 -99999 99999.0
  18  475 1 1   1 0  0.019800  0.094800   .179999  0     0     0    0    0  1.0000  0.00   0.0000 0.00000 0.0000 -99999 99999.0
 335   35 1 1   1 0  0.001300  0.007600   0.01720  0     0     0    0    0  1.0000  0.00   0.0000 0.00000 0.0000 -99999 99999.0
  45  622 1 1   1 0  0.000690  0.003120   0.00556  0     0     0    0    0  1.0000  0.00   0.0000 0.00000 0.0000 -99999 99999.0
 626  636 1 1   1 0  0.004380  0.032629   0.09679  0     0     0    0    0  1.0000  0.00   0.0000 0.00000 0.0000 -99999 99999.0
  55  617 1 1   1 0  0.004600  0.022800   0.06280  0     0     0    0    0  1.0000  0.00   0.0000 0.00000 0.0000 -99999 99999.0
  39  250 1 1   1 0  0.001000  0.007970   0.02390  0     0     0    0    0  1.0000  0.00   0.0000 0.00000 0.0000 -99999 99999.0
  39  167 1 1   1 0  0.000500  0.002930   0.00880  0     0     0    0    0  1.0000  0.00   0.0000 0.00000 0.0000 -99999 99999.0
  39  545 1 1   1 0  0.002000  0.015000   0.02485  0     0     0    0    0  1.0000  0.00   0.0000 0.00000 0.0000 -99999 99999.0
  39  545 1 1   2 0  0.001940  0.015220   0.02432  0     0     0    0    0  1.0000  0.00   0.0000 0.00000 0.0000 -99999 99999.0
  39  129 1 1   1 0  0.004340  0.020420   0.06000  0     0     0    0    0  1.0000  0.00   0.0000 0.00000 0.0000 -99999 99999.0
  39  309 1 1   1 0  0.003620  0.014470   0.02550  0     0     0    0    0  1.0000  0.00   0.0000 0.00000 0.0000 -99999 99999.0
  39  309 1 1   2 0  0.003740  0.014970   0.02550  0     0     0    0    0  1.0000  0.00   0.0000 0.00000 0.0000 -99999 99999.0
  39  352 1 1   1 0  0.003100  0.018100   0.05580  0     0     0    0    0  1.0000  0.00   0.0000 0.00000 0.0000 -99999 99999.0
  39  352 1 1   2 0  0.003120  0.018120   0.05580  0     0     0    0    0  1.0000  0.00   0.0000 0.00000 0.0000 -99999 99999.0
  39  534 1 1   1 0  0.002840  0.016450   0.04660  0     0     0    0    0  1.0000  0.00   0.0000 0.00000 0.0000 -99999 99999.0
  39  534 1 1   2 0  0.002810  0.016500   0.04700  0     0     0    0    0  1.0000  0.00   0.0000 0.00000 0.0000 -99999 99999.0
  39  578 1 1   1 0  0.007050  0.036600   0.06380  0     0     0    0    0  1.0000  0.00   0.0000 0.00000 0.0000 -99999 99999.0
  85  397 1 1   1 0  0.000000  0.001000   0.01000  0     0     0    0    0  1.0000  0.00   0.0000 0.00000 0.0000 -99999 99999.0
  67  295 1 1   1 0  0.010600  0.065400   0.09320  0     0     0    0    0  1.0000  0.00   0.0000 0.00000 0.0000 -99999 99999.0
  57  628 1 1   1 0  0.001600  0.006400   0.02360  0     0     0    0    0  1.0000  0.00   0.0000 0.00000 0.0000 -99999 99999.0
  84  458 1 1   1 0  0.014460  0.083500   .179999  0     0     0    0    0  1.0000  0.00   0.0000 0.00000 0.0000 -99999 99999.0
  64  131 1 1   1 0  0.014300  0.075000   .114800  0     0     0    0    0  1.0000  0.00   0.0000 0.00000 0.0000 -99999 99999.0
 235  126 1 1   1 0  0.000100  0.005700   0.00820  0     0     0    0    0  1.0000  0.00   0.0000 0.00000 0.0000 -99999 99999.0
 235  126 1 1   2 0  0.000100  0.005700   0.00820  0     0     0    0    0  1.0000  0.00   0.0000 0.00000 0.0000 -99999 99999.0
 235  234 1 1   1 0  0.002600  0.015200   0.02280  0     0     0    0    0  1.0000  0.00   0.0000 0.00000 0.0000 -99999 99999.0
  64  519 1 1   1 0  0.005200  0.025900   0.03800  0     0     0    0    0  1.0000  0.00   0.0000 0.00000 0.0000 -99999 99999.0
 235  436 1 1   1 0  0.002400  0.014900   0.02180  0     0     0    0    0  1.0000  0.00   0.0000 0.00000 0.0000 -99999 99999.0
  79  561 1 1   1 0  0.008720  0.042150   0.06000  0     0     0    0    0  1.0000  0.00   0.0000 0.00000 0.0000 -99999 99999.0
  77  558 1 1   1 0  0.012400  0.064700   0.08040  0     0     0    0    0  1.0000  0.00   0.0000 0.00000 0.0000 -99999 99999.0
 236  620 1 1   1 0  0.010000  0.056000   .143999  0     0     0    0    0  1.0000  0.00   0.0000 0.00000 0.0000 -99999 99999.0
 235  632 1 1   1 0  0.008400  0.050000   0.07540  0     0     0    0    0  1.0000  0.00   0.0000 0.00000 0.0000 -99999 99999.0
  83   41 1 1   1 0  0.010000  0.039100   0.06980  0     0     0    0    0  1.0000  0.00   0.0000 0.00000 0.0000 -99999 99999.0
  83  289 1 1   1 0  0.005320  0.039650   .117589  0     0     0    0    0  1.0000  0.00   0.0000 0.00000 0.0000 -99999 99999.0
  83  297 1 1   1 0  0.001690  0.009670   0.01565  0     0     0    0    0  1.0000  0.00   0.0000 0.00000 0.0000 -99999 99999.0
  83  297 1 1   2 0  0.001900  0.011100   0.01500  0     0     0    0    0  1.0000  0.00   0.0000 0.00000 0.0000 -99999 99999.0
  84   32 1 1   1 0  0.011830  0.011690   .120000  0     0     0    0    0  1.0000  0.00   0.0000 0.00000 0.0000 -99999 99999.0
  69   48 1 1   1 0  0.003800  0.017850   0.02000  0     0     0    0    0  1.0000  0.00   0.0000 0.00000 0.0000 -99999 99999.0
  69   48 1 1   2 0  0.003800  0.017850   0.02000  0     0     0    0    0  1.0000  0.00   0.0000 0.00000 0.0000 -99999 99999.0
  70   95 1 1   1 0  0.001010  0.011640   1.20000  0     0     0    0    0  1.0000  0.00   0.0000 0.00000 0.0000 -99999 99999.0
  70   95 1 1   2 0  0.000980  0.011230   1.10000  0     0     0    0    0  1.0000  0.00   0.0000 0.00000 0.0000 -99999 99999.0
 550   91 1 1   1 0  0.015000  0.041300   0.09365  0     0     0    0    0  1.0000  0.00   0.0000 0.00000 0.0000 -99999 99999.0
  84  158 1 1   1 0  0.032479  .1327299   .190420  0     0     0    0    0  1.0000  0.00   0.0000 0.00000 0.0000 -99999 99999.0
 250  309 1 1   1 0  0.001000  0.007970   0.02390  0     0     0    0    0  1.0000  0.00   0.0000 0.00000 0.0000 -99999 99999.0
  69  368 1 1   1 0  0.001110  0.006390   0.02170  0     0     0    0    0  1.0000  0.00   0.0000 0.00000 0.0000 -99999 99999.0
  69  368 1 1   2 0  0.001090  0.006440   0.02160  0     0     0    0    0  1.0000  0.00   0.0000 0.00000 0.0000 -99999 99999.0
  84  505 1 1   1 0  0.001670  0.010300   0.03010  0     0     0    0    0  1.0000  0.00   0.0000 0.00000 0.0000 -99999 99999.0
  84  505 1 1   2 0  0.001670  0.010300   0.03010  0     0     0    0    0  1.0000  0.00   0.0000 0.00000 0.0000 -99999 99999.0
  70  543 1 1   1 0  0.000490  0.009030   .960000  0     0     0    0    0  1.0000  0.00   0.0000 0.00000 0.0000 -99999 99999.0
  68  175 1 1   1 0  0.000400  0.002500   0.00660  0     0     0    0    0  1.0000  0.00   0.0000 0.00000 0.0000 -99999 99999.0
  70  574 1 1   1 0  0.001410  0.006700   .550000  0     0     0    0    0  1.0000  0.00   0.0000 0.00000 0.0000 -99999 99999.0
 583   65 1 1   1 0  0.003600  0.016400   0.04480  0     0     0    0    0  1.0000  0.00   0.0000 0.00000 0.0000 -99999 99999.0
  65   82 1 1   1 0  0.004800  0.027700   0.04040  0     0     0    0    0  1.0000  0.00   0.0000 0.00000 0.0000 -99999 99999.0
  62  111 1 1   1 0  0.002300  0.014400   0.06220  0     0     0    0    0  1.0000  0.00   0.0000 0.00000 0.0000 -99999 99999.0
  62  111 1 1   2 0  0.002300  0.014600   0.06640  0     0     0    0    0  1.0000  0.00   0.0000 0.00000 0.0000 -99999 99999.0
  62  128 1 1   1 0  0.001000  0.004900   0.01100  0     0     0    0    0  1.0000  0.00   0.0000 0.00000 0.0000 -99999 99999.0
  62  128 1 1   2 0  0.001200  0.004900   0.01100  0     0     0    0    0  1.0000  0.00   0.0000 0.00000 0.0000 -99999 99999.0
  62  643 1 1   1 0  0.001700  0.004800   0.04820  0     0     0    0    0  1.0000  0.00   0.0000 0.00000 0.0000 -99999 99999.0
  62  644 1 1   1 0  0.002000  0.004700   0.04700  0     0     0    0    0  1.0000  0.00   0.0000 0.00000 0.0000 -99999 99999.0
  62  430 1 1   1 0  0.005400  0.018000   0.02000  0     0     0    0    0  1.0000  0.00   0.0000 0.00000 0.0000 -99999 99999.0
  80   88 1 1   1 0  0.000850  0.004560   0.01249  0     0     0    0    0  1.0000  0.00   0.0000 0.00000 0.0000 -99999 99999.0
 117  400 1 1   1 0  0.006600  0.031400   0.03200  0     0     0    0    0  1.0000  0.00   0.0000 0.00000 0.0000 -99999 99999.0
 117  400 1 1   2 0  0.006600  0.031400   0.03200  0     0     0    0    0  1.0000  0.00   0.0000 0.00000 0.0000 -99999 99999.0
 106   66 1 1   1 0  0.001370  0.008440   0.02490  0     0     0    0    0  1.0000  0.00   0.0000 0.00000 0.0000 -99999 99999.0
 117   71 1 1   1 0  0.001100  0.008600   0.01560  0     0     0    0    0  1.0000  0.00   0.0000 0.00000 0.0000 -99999 99999.0
 117   71 1 1   2 0  0.001400  0.009000   0.01560  0     0     0    0    0  1.0000  0.00   0.0000 0.00000 0.0000 -99999 99999.0
 106  148 1 1   1 0  0.004000  0.021400   0.07920  0     0     0    0    0  1.0000  0.00   0.0000 0.00000 0.0000 -99999 99999.0
 106  148 1 1   2 0  0.003900  0.021700   0.07680  0     0     0    0    0  1.0000  0.00   0.0000 0.00000 0.0000 -99999 99999.0
 117  192 1 1   1 0  0.008400  0.025100   0.04160  0     0     0    0    0  1.0000  0.00   0.0000 0.00000 0.0000 -99999 99999.0
 117  192 1 1   2 0  0.008400  0.025100   0.04160  0     0     0    0    0  1.0000  0.00   0.0000 0.00000 0.0000 -99999 99999.0
 106  347 1 1   1 0  0.015900  0.098000   .148899  0     0     0    0    0  1.0000  0.00   0.0000 0.00000 0.0000 -99999 99999.0
  90  645 1 1   1 0  0.001000  0.004000   0.00760  0     0     0    0    0  1.0000  0.00   0.0000 0.00000 0.0000 -99999 99999.0
  90  646 1 1   1 0  0.001200  0.004100   0.00700  0     0     0    0    0  1.0000  0.00   0.0000 0.00000 0.0000 -99999 99999.0
  63  425 1 1   1 0  0.018300  .1129000   .171600  0     0     0    0    0  1.0000  0.00   0.0000 0.00000 0.0000 -99999 99999.0
 118  461 1 1   1 0  0.001080  0.016940   2.01630  0     0     0    0    0  1.0000  0.00   0.0000 0.00000 0.0000 -99999 99999.0
 118  461 1 1   2 0  0.001090  0.015380   2.01630  0     0     0    0    0  1.0000  0.00   0.0000 0.00000 0.0000 -99999 99999.0
 118  461 1 1   3 0  0.001090  0.015380   2.01630  0     0     0    0    0  1.0000  0.00   0.0000 0.00000 0.0000 -99999 99999.0
  87  634 1 1   1 0  0.019100  .1026000   .154799  0     0     0    0    0  1.0000  0.00   0.0000 0.00000 0.0000 -99999 99999.0
 102  336 1 1   1 0  0.003600  0.031700   0.08860  0     0     0    0    0  1.0000  0.00   0.0000 0.00000 0.0000 -99999 99999.0
 102  589 1 1   1 0  0.002100  0.011100   0.01940  0     0     0    0    0  1.0000  0.00   0.0000 0.00000 0.0000 -99999 99999.0
  94   97 1 1   1 0  0.003410  0.018590   0.03500  0     0     0    0    0  1.0000  0.00   0.0000 0.00000 0.0000 -99999 99999.0
  95  187 1 1   1 0  0.001140  0.012960   1.45000  0     0     0    0    0  1.0000  0.00   0.0000 0.00000 0.0000 -99999 99999.0
  95  187 1 1   2 0  0.001140  0.012960   1.45000  0     0     0    0    0  1.0000  0.00   0.0000 0.00000 0.0000 -99999 99999.0
  94  284 1 1   1 0  0.002280  0.015840   0.04600  0     0     0    0    0  1.0000  0.00   0.0000 0.00000 0.0000 -99999 99999.0
  94  469 1 1   1 0  0.005810  0.044550   .132000  0     0     0    0    0  1.0000  0.00   0.0000 0.00000 0.0000 -99999 99999.0
  94  562 1 1   1 0  0.014740  0.083420   .158999  0     0     0    0    0  1.0000  0.00   0.0000 0.00000 0.0000 -99999 99999.0
  98  268 1 1   1 0  0.008000  0.042300   0.06460  0     0     0    0    0  1.0000  0.00   0.0000 0.00000 0.0000 -99999 99999.0
  98  537 1 1   1 0  0.017200  0.050600   .112800  0     0     0    0    0  1.0000  0.00   0.0000 0.00000 0.0000 -99999 99999.0
 123  473 1 1   1 0  0.007100  0.029500   0.04520  0     0     0    0    0  1.0000  0.00   0.0000 0.00000 0.0000 -99999 99999.0
 593   40 1 1   1 0  0.000320  0.004200   .400000  0     0     0    0    0  1.0000  0.00   0.0000 0.00000 0.0000 -99999 99999.0
 593   40 1 1   2 0  0.000320  0.004140   .420000  0     0     0    0    0  1.0000  0.00   0.0000 0.00000 0.0000 -99999 99999.0
   9   58 1 1   1 0  0.000400  0.001800   0.00440  0     0     0    0    0  1.0000  0.00   0.0000 0.00000 0.0000 -99999 99999.0
   9   58 1 1   2 0  0.000400  0.001800   0.00440  0     0     0    0    0  1.0000  0.00   0.0000 0.00000 0.0000 -99999 99999.0
  96   94 1 1   1 0  0.005660  0.037500   .100900  0     0     0    0    0  1.0000  0.00   0.0000 0.00000 0.0000 -99999 99999.0
  96   94 1 1   2 0  0.006460  0.037800   .100900  0     0     0    0    0  1.0000  0.00   0.0000 0.00000 0.0000 -99999 99999.0
 274  103 1 1   1 0  0.000300  0.002400   0.00640  0     0     0    0    0  1.0000  0.00   0.0000 0.00000 0.0000 -99999 99999.0
 274  103 1 1   2 0  0.000300  0.002200   0.00660  0     0     0    0    0  1.0000  0.00   0.0000 0.00000 0.0000 -99999 99999.0
 275  104 1 1   1 0  0.000300  0.002400   0.00620  0     0     0    0    0  1.0000  0.00   0.0000 0.00000 0.0000 -99999 99999.0
 109  134 1 1   1 0  0.002150  0.010140   0.01000  0     0     0    0    0  1.0000  0.00   0.0000 0.00000 0.0000 -99999 99999.0
 109  134 1 1   2 0  0.002150  0.010140   0.01000  0     0     0    0    0  1.0000  0.00   0.0000 0.00000 0.0000 -99999 99999.0
 592  129 1 1   1 0  0.000580  0.003410   0.00806  0     0     0    0    0  1.0000  0.00   0.0000 0.00000 0.0000 -99999 99999.0
 592  129 1 1   2 0  0.000580  0.003410   0.00806  0     0     0    0    0  1.0000  0.00   0.0000 0.00000 0.0000 -99999 99999.0
 504  223 1 1   1 0  0.000500  0.005800   0.01940  0     0     0    0    0  1.0000  0.00   0.0000 0.00000 0.0000 -99999 99999.0
 504  223 1 1   2 0  0.000700  0.006600   0.01520  0     0     0    0    0  1.0000  0.00   0.0000 0.00000 0.0000 -99999 99999.0
 274  276 1 1   1 0  0.004000  0.017300   0.04700  0     0     0    0    0  1.0000  0.00   0.0000 0.00000 0.0000 -99999 99999.0
 274  276 1 1   2 0  0.003800  0.017400   0.04600  0     0     0    0    0  1.0000  0.00   0.0000 0.00000 0.0000 -99999 99999.0
 274  302 1 1   1 0  0.002300  0.011200   0.02700  0     0     0    0    0  1.0000  0.00   0.0000 0.00000 0.0000 -99999 99999.0
 274  302 1 1   2 0  0.002600  0.013000   0.03640  0     0     0    0    0  1.0000  0.00   0.0000 0.00000 0.0000 -99999 99999.0
 199  220 1 1   1 0  0.000900  0.004900   0.01480  0     0     0    0    0  1.0000  0.00   0.0000 0.00000 0.0000 -99999 99999.0
 275  441 1 1   1 0  0.004000  0.036200   0.09580  0     0     0    0    0  1.0000  0.00   0.0000 0.00000 0.0000 -99999 99999.0
 492  325 1 1   1 0  0.000900  0.004800   0.01068  0     0     0    0    0  1.0000  0.00   0.0000 0.00000 0.0000 -99999 99999.0
 130  462 1 1   1 0  0.006070  0.028540   0.01000  0     0     0    0    0  1.0000  0.00   0.0000 0.00000 0.0000 -99999 99999.0
  96  575 1 1   1 0  0.001100  0.005400   0.01780  0     0     0    0    0  1.0000  0.00   0.0000 0.00000 0.0000 -99999 99999.0
  96  575 1 1   2 0  0.001100  0.005400   0.01780  0     0     0    0    0  1.0000  0.00   0.0000 0.00000 0.0000 -99999 99999.0
 592  578 1 1   1 0  0.002900  0.014900   0.04100  0     0     0    0    0  1.0000  0.00   0.0000 0.00000 0.0000 -99999 99999.0
 492  609 1 1   1 0  0.000600  0.003400   0.01300  0     0     0    0    0  1.0000  0.00   0.0000 0.00000 0.0000 -99999 99999.0
 275  335 1 1   1 0  0.012000  0.038000   0.07200  0     0     0    0    0  1.0000  0.00   0.0000 0.00000 0.0000 -99999 99999.0
 275  615 1 1   1 0  0.004010  0.021640   0.06063  0     0     0    0    0  1.0000  0.00   0.0000 0.00000 0.0000 -99999 99999.0
 275  615 1 1   2 0  0.003760  0.021470   0.06071  0     0     0    0    0  1.0000  0.00   0.0000 0.00000 0.0000 -99999 99999.0
 621  636 1 1   1 0  0.005300  0.025000   0.01000  0     0     0    0    0  1.0000  0.00   0.0000 0.00000 0.0000 -99999 99999.0
  89  134 1 1   1 0  0.002400  0.014100   0.03940  0     0     0    0    0  1.0000  0.00   0.0000 0.00000 0.0000 -99999 99999.0
  89  535 1 1   1 0  0.006600  0.035700   0.05480  0     0     0    0    0  1.0000  0.00   0.0000 0.00000 0.0000 -99999 99999.0
  89  535 1 1   2 0  0.006900  0.035700   0.05600  0     0     0    0    0  1.0000  0.00   0.0000 0.00000 0.0000 -99999 99999.0
 105   36 1 1   1 0  0.000570  0.005570   .520000  0     0     0    0    0  1.0000  0.00   0.0000 0.00000 0.0000 -99999 99999.0
 111   31 1 1   1 0  0.002700  0.012700   0.02340  0     0     0    0    0  1.0000  0.00   0.0000 0.00000 0.0000 -99999 99999.0
 111   31 1 1   2 0  0.002700  0.012700   0.02340  0     0     0    0    0  1.0000  0.00   0.0000 0.00000 0.0000 -99999 99999.0
 299   49 1 1   1 0  0.002300  0.007800   0.01380  0     0     0    0    0  1.0000  0.00   0.0000 0.00000 0.0000 -99999 99999.0
 493  243 1 1   1 0  0.002700  0.015000   0.04000  0     0     0    0    0  1.0000  0.00   0.0000 0.00000 0.0000 -99999 99999.0
 179  219 1 1   1 0  0.009000  0.050400   0.08280  0     0     0    0    0  1.0000  0.00   0.0000 0.00000 0.0000 -99999 99999.0
 105  342 1 1   1 0  0.001500  0.017100   1.66300  0     0     0    0    0  1.0000  0.00   0.0000 0.00000 0.0000 -99999 99999.0
 105  342 1 1   2 0  0.001600  0.017800   1.66700  0     0     0    0    0  1.0000  0.00   0.0000 0.00000 0.0000 -99999 99999.0
 241  354 1 1   1 0  0.003000  0.015200   0.03420  0     0     0    0    0  1.0000  0.00   0.0000 0.00000 0.0000 -99999 99999.0
 241  354 1 1   2 0  0.003100  0.015800   0.03460  0     0     0    0    0  1.0000  0.00   0.0000 0.00000 0.0000 -99999 99999.0
 241  362 1 1   1 0  0.001200  0.006000   0.01000  0     0     0    0    0  1.0000  0.00   0.0000 0.00000 0.0000 -99999 99999.0
  88  381 1 1   1 0  0.001200  0.005900   0.01500  0     0     0    0    0  1.0000  0.00   0.0000 0.00000 0.0000 -99999 99999.0
 241  435 1 1   1 0  0.014000  0.092000   .222399  0     0     0    0    0  1.0000  0.00   0.0000 0.00000 0.0000 -99999 99999.0
 493  455 1 1   1 0  0.011500  0.058800   .116000  0     0     0    0    0  1.0000  0.00   0.0000 0.00000 0.0000 -99999 99999.0
 111  483 1 1   1 0  0.008700  0.057600   0.05020  0     0     0    0    0  1.0000  0.00   0.0000 0.00000 0.0000 -99999 99999.0
 169  647 1 1   1 0  0.001600  0.008900   0.02560  0     0     0    0    0  1.0000  0.00   0.0000 0.00000 0.0000 -99999 99999.0
...
-999
LOSS ZONES FOLLOWS   0 ITEMS
-99
INTERCHANGE DATA FOLLOWS      0 ITEMS
-9
TIE LINES FOLLOWS             0ITEMS
-999
END OF DATA